
Note: No compatibility mode selected!


Circuit: * driver deck


Note: Compatibility modes selected: hs a

Warning: m=xx on .subckt line will override multiplier m hierarchy!


Circuit: * second simulation "discrete time" (from sky130_track_and_hold.ipynb)

option SCALE: Scale is set to 1e-06 for instance and model parameters
Doing analysis at TEMP = 27.000000 and TNOM = 27.000000

Using SPARSE 1.3 as Direct Linear Solver
Warning: Interpolated raw file data!


Initial Transient Solution
--------------------------

Node                                   Voltage
----                                   -------
in                                         0.4
clk                                        1.2
out                                        0.4
vclk#branch                                  0
vin#branch                            -8.2e-13


No. of Data Rows : 299
ngspice-44 done
